/*--------------------------------*- C++ -*----------------------------------*\
| =========                 |                                                 |
| \\      /  F ield         | OpenFOAM: The Open Source CFD Toolbox           |
|  \\    /   O peration     | Version:  v2312                                 |
|   \\  /    A nd           | Website:  www.openfoam.com                      |
|    \\/     M anipulation  |                                                 |
\*---------------------------------------------------------------------------*/
FoamFile
{
    version     2.0;
    format      ascii;
    class       dictionary;
    object      fvSolution;
}
// * * * * * * * * * * * * * * * * * * * * * * * * * * * * * * * * * * * * * //

solvers
{
    "alpha.*"
    {
        nAlphaCorr      1;
        nAlphaSubCycles 2;
    }
    
    "(e|h).*"
    {
        solver          smoothSolver;
        smoother        symGaussSeidel;
        tolerance       1e-8;
        relTol          0;
        minIter         1;
        maxIter         10;
    }

    p_rgh
    {
        solver          GAMG;
        tolerance       1e-7;
        relTol          0.01;
        smoother        GaussSeidel;
    }

    p_rghFinal
    {
        $p_rgh;
        tolerance       1e-7;
        relTol          0;
        maxIter         30;
    }
    
    "(k|epsilon|omega|nut)"
    {
        solver          GAMG;
        tolerance       1e-7;
        relTol          0.01;
        smoother        GaussSeidel;
    }

    "U.*"
    {
        solver          smoothSolver;
        smoother        symGaussSeidel;
        tolerance       1e-5;
        relTol          0;
        minIter         1;
    }
}

PIMPLE
{
    nOuterCorrectors 1;
    nCorrectors      3;
    nNonOrthogonalCorrectors 1;
}

relaxationFactors
{
    equations
    {
        ".*"            1;
    }
}


// ************************************************************************* //
