/*--------------------------------*- C++ -*----------------------------------*\
| =========                 |                                                 |
| \\      /  F ield         | OpenFOAM: The Open Source CFD Toolbox           |
|  \\    /   O peration     | Version:  2312                                  |
|   \\  /    A nd           | Website:  www.openfoam.com                      |
|    \\/     M anipulation  |                                                 |
\*---------------------------------------------------------------------------*/
FoamFile
{
    version     2.0;
    format      ascii;
    arch        "LSB;label=32;scalar=64";
    class       polyBoundaryMesh;
    location    "constant/polyMesh";
    object      boundary;
}
// * * * * * * * * * * * * * * * * * * * * * * * * * * * * * * * * * * * * * //

5
(
    empty
    {
        type            empty;
        inGroups        1(empty);
        nFaces          19663;
        startFace       48571;
    }
    walls
    {
        type            wall;
        inGroups        1(wall);
        nFaces          788;
        startFace       68234;
    }
    inlet
    {
        type            patch;
        nFaces          9;
        startFace       69022;
    }
    symmetry
    {
        type            symmetryPlane;
        nFaces          586;
        startFace       69031;
    }
    outlet
    {
        type            patch;
        nFaces          36;
        startFace       69617;
    }
)

// ************************************************************************* //
